[General]
network = PingPongGame
sim-time-limit = 10 seconds
